/*--------------------------------*- C++ -*----------------------------------*\
| =========                 |                                                 |
| \\      /  F ield         | OpenFOAM: The Open Source CFD Toolbox           |
|  \\    /   O peration     | Version:  5                                     |
|   \\  /    A nd           | Web:      www.OpenFOAM.org                      |
|    \\/     M anipulation  |                                                 |
\*---------------------------------------------------------------------------*/
FoamFile
{
    version     2.0;
    format      ascii;
    class       dictionary;
    location    "system";
    object      fvSolution;
}
// * * * * * * * * * * * * * * * * * * * * * * * * * * * * * * * * * * * * * //

solvers
{
    U
    {
        solver          amgcl;
        tolerance       1e-08;
        relTol          1e-03;
        
        amgcl
        {
            options
            {
                solver      bicgstab;    // 非对称矩阵求解器
                relaxation  spai0;       // 预条件器
                coarsening  smoothed_aggregation;
                maxiter     100;
                ns_search   true;        // BiCGStab 空值搜索
            }
            
            caching
            {
                matrix
                {
                    update  always;      // 速度场每次更新
                }
            }
        }
    }

    pCorr
    {
        solver          amgcl;
        tolerance       1e-08;
        relTol          0.01;
        
        amgcl
        {
            options
            {
                solver      cg;          // 对称矩阵用 CG
                relaxation  spai0;
                coarsening  smoothed_aggregation;
                maxiter     100;
            }
            
            caching
            {
                matrix
                {
                    update  periodic;
                    periodicCoeffs
                    {
                        frequency 1;
                    }
                }
            }
        }
    }

    pCorrFinal
    {
        solver          amgcl;
        tolerance       1e-15;
        relTol          0;
        
        amgcl
        {
            options
            {
                solver      cg;          // 压力校正用 CG
                relaxation  spai0;
                coarsening  smoothed_aggregation;
                maxiter     100;
                
                // AMG 参数调优
                amg
                {
                    eps_strong  0.0;
                    over_interp 1.5;
                }
            }
            
            caching
            {
                matrix
                {
                    update  periodic;
                    periodicCoeffs
                    {
                        frequency 1;
                    }
                }
            }
        }
    }

    // p
    // {
    //     solver          GAMG;
    //     tolerance       1e-08;
    //     relTol          0.01;
    //     smoother        GaussSeidel;
    //     nPreSweeps      0;
    //     nPostSweeps     2;
    //     nFinestSweeps   2;
    //     cacheAgglomeration false;
    //     nCellsInCoarsestLevel 10;
    //     agglomerator    faceAreaPair;
    //     mergeLevels     1;
    // }

    // p
    // {
    //     solver amgclMPI;
    //     amgclMPI
    //     {
    //         options
    //         {
    //             // check_after false;
    //             ns_search true;
    //             maxiter 100;
    //         }
    //         caching
    //         {
    //             matrix
    //             {
    //                 //update always;
    //                 update periodic;
    //                 periodicCoeffs
    //                 {
    //                     frequency 3;
    //                 }
    //             }
    //         }
    //     }
    //     tolerance       0;
    //     relTol          1e-6;
    // }

    // pFinal
    // {
    //     solver amgclMPI;
    //     amgclMPI
    //     {
    //         options
    //         {
    //             // check_after false;
    //             ns_search true;
    //             maxiter 100;
    //         }
    //         caching
    //         {
    //             matrix
    //             {
    //                 //update always;
    //                 update periodic;
    //                 periodicCoeffs
    //                 {
    //                     frequency 1;
    //                 }
    //             }
    //         }
    //     }
    //     tolerance       0;
    //     relTol          1e-15;
    // }

    pFinal
    {
        solver          amgcl;
        tolerance       0;
        relTol          1e-15;
        
        amgcl
        {
            options
            {
                solver      cg;          // 最终压力求解用 CG (对称)
                relaxation  spai0;       // SPAI0 预条件器
                coarsening  smoothed_aggregation;
                maxiter     100;
                
                // AMG 粗化参数
                amg
                {
                    eps_strong  0.0;     // 强连接阈值
                    over_interp 1.5;     // 过插值系数
                }
            }
            
            caching
            {
                matrix
                {
                    update  periodic;    // 周期性更新矩阵
                    periodicCoeffs
                    {
                        frequency 1;     // 每次迭代更新
                    }
                }
            }
        }
    }

    // pFinal
    // {
    //     solver          PBiCGStab;
    //     preconditioner
    //     {
    //         preconditioner  GAMG;
    //         tolerance       1e-15;
    //         relTol          0.01;
    //         nVcycles        2;
    //         smoother        GaussSeidel;
    //         nPreSweeps      0;
    //         nPostSweeps     2;
    //         nFinestSweeps   2;
    //         cacheAgglomeration false;
    //         nCellsInCoarsestLevel 10;
    //         agglomerator    faceAreaPair;
    //         mergeLevels     1;
    //     }

    //     tolerance       0;
    //     relTol          1e-15;
    //     maxIter         100;
    // }
}

SIMPLE
{
    nNonOrthogonalCorrectors 4;
    residualControl
    {
        p    1e-10;
    }
    pRefCell        0;
    pRefValue       0;
}

PISO
{
    momentumPredictor        yes;
    nCorrectors     1;
    nNonOrthogonalCorrectors 0;
    pRefCell        0;
    pRefValue       0;
}

relaxationFactors
{
    fields
    {
        p               1.0;
    }
    equations
    {
        U               1.0;
    }
}

// ************************************************************************* //
